NOVO24/1726521/Cargas.dss
! ==========================================================
! CARGAS — mes 01
! BT: UCBT_tab agregada por transformador (kW = ENE/730 h)
! MT: UCMT_tab individual no PAC do consumidor
! fator de escala aplicado: 1
! 0 cargas de MT descartadas por PAC ausente da rede.
! ==========================================================
New Load.BT_324478860_326253105_1 Bus1=node_410084755.1.4 Phases=1 Model=8 zipv=(0.5,0,0.5,1,0,0,0) kv=0.1270 pf=0.92 kW=2.662100 Daily=RES1_25
New Load.BT_324478860_326253105_2 Bus1=node_410084755.2.4 Phases=1 Model=8 zipv=(0.5,0,0.5,1,0,0,0) kv=0.1270 pf=0.92 kW=2.662100 Daily=RES1_25
New Load.BT_324478860_326253105_3 Bus1=node_410084755.3.4 Phases=1 Model=8 zipv=(0.5,0,0.5,1,0,0,0) kv=0.1270 pf=0.92 kW=2.662100 Daily=RES1_25
New Load.BT_325516670_325932680_1 Bus1=node_408207979.1.4 Phases=1 Model=8 zipv=(0.5,0,0.5,1,0,0,0) kv=0.1270 pf=0.92 kW=11.046119 Daily=RES1_25
New Load.BT_325516670_325932680_2 Bus1=node_408207979.2.4 Phases=1 Model=8 zipv=(0.5,0,0.5,1,0,0,0) kv=0.1270 pf=0.92 kW=11.046119 Daily=RES1_25
New Load.BT_325516670_325932680_3 Bus1=node_408207979.3.4 Phases=1 Model=8 zipv=(0.5,0,0.5,1,0,0,0) kv=0.1270 pf=0.92 kW=11.046119 Daily=RES1_25
New Load.BT_325095180_326135385_1 Bus1=node_410016950.1.4 Phases=1 Model=8 zipv=(0.5,0,0.5,1,0,0,0) kv=0.1270 pf=0.92 kW=2.429224 Daily=RES1_25
New Load.BT_325095180_326135385_2 Bus1=node_410016950.2.4 Phases=1 Model=8 zipv=(0.5,0,0.5,1,0,0,0) kv=0.1270 pf=0.92 kW=2.429224 Daily=RES1_25
New Load.BT_325095180_326135385_3 Bus1=node_410016950.3.4 Phases=1 Model=8 zipv=(0.5,0,0.5,1,0,0,0) kv=0.1270 pf=0.92 kW=2.429224 Daily=RES1_25
New Load.BT_325095736_325933559_1 Bus1=node_408207010.1.4 Phases=1 Model=8 zipv=(0.5,0,0.5,1,0,0,0) kv=0.1270 pf=0.92 kW=6.162557 Daily=RES1_25
New Load.BT_325095736_325933559_2 Bus1=node_408207010.2.4 Phases=1 Model=8 zipv=(0.5,0,0.5,1,0,0,0) kv=0.1270 pf=0.92 kW=6.162557 Daily=RES1_25
New Load.BT_325095736_325933559_3 Bus1=node_408207010.3.4 Phases=1 Model=8 zipv=(0.5,0,0.5,1,0,0,0) kv=0.1270 pf=0.92 kW=6.162557 Daily=RES1_25
New Load.BT_325250297_326252768_1 Bus1=node_409642681.1.4 Phases=1 Model=8 zipv=(0.5,0,0.5,1,0,0,0) kv=0.1270 pf=0.92 kW=1.416438 Daily=RES1_25
New Load.BT_325250297_326252768_2 Bus1=node_409642681.2.4 Phases=1 Model=8 zipv=(0.5,0,0.5,1,0,0,0) kv=0.1270 pf=0.92 kW=1.416438 Daily=RES1_25
New Load.BT_325250297_326252768_3 Bus1=node_409642681.3.4 Phases=1 Model=8 zipv=(0.5,0,0.5,1,0,0,0) kv=0.1270 pf=0.92 kW=1.416438 Daily=RES1_25
New Load.BT_325097843_326169758_1 Bus1=node_410085010.1.4 Phases=1 Model=8 zipv=(0.5,0,0.5,1,0,0,0) kv=0.1270 pf=0.92 kW=4.218265 Daily=RES1_25
New Load.BT_325097843_326169758_2 Bus1=node_410085010.2.4 Phases=1 Model=8 zipv=(0.5,0,0.5,1,0,0,0) kv=0.1270 pf=0.92 kW=4.218265 Daily=RES1_25
New Load.BT_325097843_326169758_3 Bus1=node_410085010.3.4 Phases=1 Model=8 zipv=(0.5,0,0.5,1,0,0,0) kv=0.1270 pf=0.92 kW=4.218265 Daily=RES1_25
New Load.BT_325755249_326205008_1 Bus1=node_410085256.1.4 Phases=1 Model=8 zipv=(0.5,0,0.5,1,0,0,0) kv=0.1270 pf=0.92 kW=8.831507 Daily=RES1_26
New Load.BT_325755249_326205008_2 Bus1=node_410085256.2.4 Phases=1 Model=8 zipv=(0.5,0,0.5,1,0,0,0) kv=0.1270 pf=0.92 kW=8.831507 Daily=RES1_26
New Load.BT_325755249_326205008_3 Bus1=node_410085256.3.4 Phases=1 Model=8 zipv=(0.5,0,0.5,1,0,0,0) kv=0.1270 pf=0.92 kW=8.831507 Daily=RES1_26
New Load.BT_324479916_326136353_1 Bus1=node_408207274.1.4 Phases=1 Model=8 zipv=(0.5,0,0.5,1,0,0,0) kv=0.1270 pf=0.92 kW=8.887215 Daily=RES1_25
New Load.BT_324479916_326136353_2 Bus1=node_408207274.2.4 Phases=1 Model=8 zipv=(0.5,0,0.5,1,0,0,0) kv=0.1270 pf=0.92 kW=8.887215 Daily=RES1_25
New Load.BT_324479916_326136353_3 Bus1=node_408207274.3.4 Phases=1 Model=8 zipv=(0.5,0,0.5,1,0,0,0) kv=0.1270 pf=0.92 kW=8.887215 Daily=RES1_25
New Load.BT_325515494_326137745_1 Bus1=node_409043343.1.4 Phases=1 Model=8 zipv=(0.5,0,0.5,1,0,0,0) kv=0.1270 pf=0.92 kW=10.159361 Daily=RES1_25
New Load.BT_325515494_326137745_2 Bus1=node_409043343.2.4 Phases=1 Model=8 zipv=(0.5,0,0.5,1,0,0,0) kv=0.1270 pf=0.92 kW=10.159361 Daily=RES1_25
New Load.BT_325515494_326137745_3 Bus1=node_409043343.3.4 Phases=1 Model=8 zipv=(0.5,0,0.5,1,0,0,0) kv=0.1270 pf=0.92 kW=10.159361 Daily=RES1_25
New Load.BT_325755487_326252853_1 Bus1=node_409829412.1.4 Phases=1 Model=8 zipv=(0.5,0,0.5,1,0,0,0) kv=0.1200 pf=0.92 kW=0.186986 Daily=RES1_25
New Load.BT_325755487_326252853_2 Bus1=node_409829412.2.4 Phases=1 Model=8 zipv=(0.5,0,0.5,1,0,0,0) kv=0.1200 pf=0.92 kW=0.186986 Daily=RES1_25
New Load.BT_324478599_326204929_1 Bus1=node_410084980.1.4 Phases=1 Model=8 zipv=(0.5,0,0.5,1,0,0,0) kv=0.1270 pf=0.92 kW=3.173059 Daily=RES1_25
New Load.BT_324478599_326204929_2 Bus1=node_410084980.2.4 Phases=1 Model=8 zipv=(0.5,0,0.5,1,0,0,0) kv=0.1270 pf=0.92 kW=3.173059 Daily=RES1_25
New Load.BT_324478599_326204929_3 Bus1=node_410084980.3.4 Phases=1 Model=8 zipv=(0.5,0,0.5,1,0,0,0) kv=0.1270 pf=0.92 kW=3.173059 Daily=RES1_25
New Load.BT_325096455_919280992_1 Bus1=node_408208183.1.4 Phases=1 Model=8 zipv=(0.5,0,0.5,1,0,0,0) kv=0.1270 pf=0.92 kW=7.751598 Daily=RES1_25
New Load.BT_325096455_919280992_2 Bus1=node_408208183.2.4 Phases=1 Model=8 zipv=(0.5,0,0.5,1,0,0,0) kv=0.1270 pf=0.92 kW=7.751598 Daily=RES1_25
New Load.BT_325096455_919280992_3 Bus1=node_408208183.3.4 Phases=1 Model=8 zipv=(0.5,0,0.5,1,0,0,0) kv=0.1270 pf=0.92 kW=7.751598 Daily=RES1_25
New Load.BT_325253170_326137723_1 Bus1=node_408207844.1.4 Phases=1 Model=8 zipv=(0.5,0,0.5,1,0,0,0) kv=0.1270 pf=0.92 kW=9.526941 Daily=RES1_25
New Load.BT_325253170_326137723_2 Bus1=node_408207844.2.4 Phases=1 Model=8 zipv=(0.5,0,0.5,1,0,0,0) kv=0.1270 pf=0.92 kW=9.526941 Daily=RES1_25
New Load.BT_325253170_326137723_3 Bus1=node_408207844.3.4 Phases=1 Model=8 zipv=(0.5,0,0.5,1,0,0,0) kv=0.1270 pf=0.92 kW=9.526941 Daily=RES1_25
New Load.BT_325095841_326203041_1 Bus1=node_408207451.1.4 Phases=1 Model=8 zipv=(0.5,0,0.5,1,0,0,0) kv=0.1270 pf=0.92 kW=9.249772 Daily=RES1_25
New Load.BT_325095841_326203041_2 Bus1=node_408207451.2.4 Phases=1 Model=8 zipv=(0.5,0,0.5,1,0,0,0) kv=0.1270 pf=0.92 kW=9.249772 Daily=RES1_25
New Load.BT_325095841_326203041_3 Bus1=node_408207451.3.4 Phases=1 Model=8 zipv=(0.5,0,0.5,1,0,0,0) kv=0.1270 pf=0.92 kW=9.249772 Daily=RES1_25
New Load.BT_325095635_326170713_1 Bus1=node_410085073.1.4 Phases=1 Model=8 zipv=(0.5,0,0.5,1,0,0,0) kv=0.1270 pf=0.92 kW=1.670776 Daily=RES1_25
New Load.BT_325095635_326170713_2 Bus1=node_410085073.2.4 Phases=1 Model=8 zipv=(0.5,0,0.5,1,0,0,0) kv=0.1270 pf=0.92 kW=1.670776 Daily=RES1_25
New Load.BT_325095635_326170713_3 Bus1=node_410085073.3.4 Phases=1 Model=8 zipv=(0.5,0,0.5,1,0,0,0) kv=0.1270 pf=0.92 kW=1.670776 Daily=RES1_25
New Load.BT_1004564220_1004564221_1 Bus1=node_1267163975.1.4 Phases=1 Model=8 zipv=(0.5,0,0.5,1,0,0,0) kv=0.1270 pf=0.92 kW=3.442466 Daily=RES1_25
New Load.BT_1004564220_1004564221_2 Bus1=node_1267163975.2.4 Phases=1 Model=8 zipv=(0.5,0,0.5,1,0,0,0) kv=0.1270 pf=0.92 kW=3.442466 Daily=RES1_25
New Load.BT_1004564220_1004564221_3 Bus1=node_1267163975.3.4 Phases=1 Model=8 zipv=(0.5,0,0.5,1,0,0,0) kv=0.1270 pf=0.92 kW=3.442466 Daily=RES1_25
New Load.BT_325096763_325933058_1 Bus1=node_418484871.1.4 Phases=1 Model=8 zipv=(0.5,0,0.5,1,0,0,0) kv=0.1270 pf=0.92 kW=2.737900 Daily=RES1_25
New Load.BT_325096763_325933058_2 Bus1=node_418484871.2.4 Phases=1 Model=8 zipv=(0.5,0,0.5,1,0,0,0) kv=0.1270 pf=0.92 kW=2.737900 Daily=RES1_25
New Load.BT_325096763_325933058_3 Bus1=node_418484871.3.4 Phases=1 Model=8 zipv=(0.5,0,0.5,1,0,0,0) kv=0.1270 pf=0.92 kW=2.737900 Daily=RES1_25
New Load.BT_325515710_326136354_1 Bus1=node_408207349.1.4 Phases=1 Model=8 zipv=(0.5,0,0.5,1,0,0,0) kv=0.1270 pf=0.92 kW=11.573059 Daily=RES1_25
New Load.BT_325515710_326136354_2 Bus1=node_408207349.2.4 Phases=1 Model=8 zipv=(0.5,0,0.5,1,0,0,0) kv=0.1270 pf=0.92 kW=11.573059 Daily=RES1_25
New Load.BT_325515710_326136354_3 Bus1=node_408207349.3.4 Phases=1 Model=8 zipv=(0.5,0,0.5,1,0,0,0) kv=0.1270 pf=0.92 kW=11.573059 Daily=RES1_25
New Load.BT_325096607_326205995_1 Bus1=node_410137912.1.4 Phases=1 Model=8 zipv=(0.5,0,0.5,1,0,0,0) kv=0.1270 pf=0.92 kW=6.952055 Daily=RES1_25
New Load.BT_325096607_326205995_2 Bus1=node_410137912.2.4 Phases=1 Model=8 zipv=(0.5,0,0.5,1,0,0,0) kv=0.1270 pf=0.92 kW=6.952055 Daily=RES1_25
New Load.BT_325096607_326205995_3 Bus1=node_410137912.3.4 Phases=1 Model=8 zipv=(0.5,0,0.5,1,0,0,0) kv=0.1270 pf=0.92 kW=6.952055 Daily=RES1_25
New Load.BT_325753113_325933403_1 Bus1=node_408207280.1.4 Phases=1 Model=8 zipv=(0.5,0,0.5,1,0,0,0) kv=0.1270 pf=0.92 kW=10.459361 Daily=RES1_25
New Load.BT_325753113_325933403_2 Bus1=node_408207280.2.4 Phases=1 Model=8 zipv=(0.5,0,0.5,1,0,0,0) kv=0.1270 pf=0.92 kW=10.459361 Daily=RES1_25
New Load.BT_325753113_325933403_3 Bus1=node_408207280.3.4 Phases=1 Model=8 zipv=(0.5,0,0.5,1,0,0,0) kv=0.1270 pf=0.92 kW=10.459361 Daily=RES1_25
New Load.BT_325519218_325932775_1 Bus1=node_410085076.1.4 Phases=1 Model=8 zipv=(0.5,0,0.5,1,0,0,0) kv=0.1270 pf=0.92 kW=1.902740 Daily=RES1_25
New Load.BT_325519218_325932775_2 Bus1=node_410085076.2.4 Phases=1 Model=8 zipv=(0.5,0,0.5,1,0,0,0) kv=0.1270 pf=0.92 kW=1.902740 Daily=RES1_25
New Load.BT_325519218_325932775_3 Bus1=node_410085076.3.4 Phases=1 Model=8 zipv=(0.5,0,0.5,1,0,0,0) kv=0.1270 pf=0.92 kW=1.902740 Daily=RES1_25
New Load.BT_325518364_326137725_1 Bus1=node_408208693.1.4 Phases=1 Model=8 zipv=(0.5,0,0.5,1,0,0,0) kv=0.1270 pf=0.92 kW=7.585388 Daily=RES1_25
New Load.BT_325518364_326137725_2 Bus1=node_408208693.2.4 Phases=1 Model=8 zipv=(0.5,0,0.5,1,0,0,0) kv=0.1270 pf=0.92 kW=7.585388 Daily=RES1_25
New Load.BT_325518364_326137725_3 Bus1=node_408208693.3.4 Phases=1 Model=8 zipv=(0.5,0,0.5,1,0,0,0) kv=0.1270 pf=0.92 kW=7.585388 Daily=RES1_25
New Load.BT_438627883_438627882_1 Bus1=node_707509654.1.4 Phases=1 Model=8 zipv=(0.5,0,0.5,1,0,0,0) kv=0.1200 pf=0.92 kW=4.493836 Daily=RES1_25
New Load.BT_438627883_438627882_2 Bus1=node_707509654.2.4 Phases=1 Model=8 zipv=(0.5,0,0.5,1,0,0,0) kv=0.1200 pf=0.92 kW=4.493836 Daily=RES1_25
New Load.BT_325752021_325932774_1 Bus1=node_410084941.1.4 Phases=1 Model=8 zipv=(0.5,0,0.5,1,0,0,0) kv=0.1270 pf=0.92 kW=1.400457 Daily=RES1_25
New Load.BT_325752021_325932774_2 Bus1=node_410084941.2.4 Phases=1 Model=8 zipv=(0.5,0,0.5,1,0,0,0) kv=0.1270 pf=0.92 kW=1.400457 Daily=RES1_25
New Load.BT_325752021_325932774_3 Bus1=node_410084941.3.4 Phases=1 Model=8 zipv=(0.5,0,0.5,1,0,0,0) kv=0.1270 pf=0.92 kW=1.400457 Daily=RES1_25
New Load.BT_325752569_326253029_1 Bus1=node_410020031.1.4 Phases=1 Model=8 zipv=(0.5,0,0.5,1,0,0,0) kv=0.1270 pf=0.92 kW=4.064840 Daily=RES1_25
New Load.BT_325752569_326253029_2 Bus1=node_410020031.2.4 Phases=1 Model=8 zipv=(0.5,0,0.5,1,0,0,0) kv=0.1270 pf=0.92 kW=4.064840 Daily=RES1_25
New Load.BT_325752569_326253029_3 Bus1=node_410020031.3.4 Phases=1 Model=8 zipv=(0.5,0,0.5,1,0,0,0) kv=0.1270 pf=0.92 kW=4.064840 Daily=RES1_25
New Load.BT_324479310_2448202633_1 Bus1=node_408208690.1.4 Phases=1 Model=8 zipv=(0.5,0,0.5,1,0,0,0) kv=0.1270 pf=0.92 kW=7.453425 Daily=RES1_25
New Load.BT_324479310_2448202633_2 Bus1=node_408208690.2.4 Phases=1 Model=8 zipv=(0.5,0,0.5,1,0,0,0) kv=0.1270 pf=0.92 kW=7.453425 Daily=RES1_25
New Load.BT_324479310_2448202633_3 Bus1=node_408208690.3.4 Phases=1 Model=8 zipv=(0.5,0,0.5,1,0,0,0) kv=0.1270 pf=0.92 kW=7.453425 Daily=RES1_25
New Load.BT_324478971_326252721_1 Bus1=node_409581618.1.4 Phases=1 Model=8 zipv=(0.5,0,0.5,1,0,0,0) kv=0.1200 pf=0.92 kW=11.484932 Daily=RES1_25
New Load.BT_324478971_326252721_2 Bus1=node_409581618.2.4 Phases=1 Model=8 zipv=(0.5,0,0.5,1,0,0,0) kv=0.1200 pf=0.92 kW=11.484932 Daily=RES1_25
New Load.BT_325931898_326203037_1 Bus1=node_408208198.1.4 Phases=1 Model=8 zipv=(0.5,0,0.5,1,0,0,0) kv=0.1270 pf=0.92 kW=2.906393 Daily=RES1_25
New Load.BT_325931898_326203037_2 Bus1=node_408208198.2.4 Phases=1 Model=8 zipv=(0.5,0,0.5,1,0,0,0) kv=0.1270 pf=0.92 kW=2.906393 Daily=RES1_25
New Load.BT_325931898_326203037_3 Bus1=node_408208198.3.4 Phases=1 Model=8 zipv=(0.5,0,0.5,1,0,0,0) kv=0.1270 pf=0.92 kW=2.906393 Daily=RES1_25
New Load.BT_325250011_326170600_1 Bus1=node_409956759.1.4 Phases=1 Model=8 zipv=(0.5,0,0.5,1,0,0,0) kv=0.1270 pf=0.92 kW=8.430594 Daily=RES1_25
New Load.BT_325250011_326170600_2 Bus1=node_409956759.2.4 Phases=1 Model=8 zipv=(0.5,0,0.5,1,0,0,0) kv=0.1270 pf=0.92 kW=8.430594 Daily=RES1_25
New Load.BT_325250011_326170600_3 Bus1=node_409956759.3.4 Phases=1 Model=8 zipv=(0.5,0,0.5,1,0,0,0) kv=0.1270 pf=0.92 kW=8.430594 Daily=RES1_25
New Load.BT_325515588_325935367_1 Bus1=node_408207775.1.4 Phases=1 Model=8 zipv=(0.5,0,0.5,1,0,0,0) kv=0.1270 pf=0.92 kW=8.775342 Daily=RES1_25
New Load.BT_325515588_325935367_2 Bus1=node_408207775.2.4 Phases=1 Model=8 zipv=(0.5,0,0.5,1,0,0,0) kv=0.1270 pf=0.92 kW=8.775342 Daily=RES1_25
New Load.BT_325515588_325935367_3 Bus1=node_408207775.3.4 Phases=1 Model=8 zipv=(0.5,0,0.5,1,0,0,0) kv=0.1270 pf=0.92 kW=8.775342 Daily=RES1_25
New Load.BT_325751609_489305594_1 Bus1=node_418015340.1.4 Phases=1 Model=8 zipv=(0.5,0,0.5,1,0,0,0) kv=0.1270 pf=0.92 kW=0.919178 Daily=RES1_25
New Load.BT_325751609_489305594_2 Bus1=node_418015340.2.4 Phases=1 Model=8 zipv=(0.5,0,0.5,1,0,0,0) kv=0.1270 pf=0.92 kW=0.919178 Daily=RES1_25
New Load.BT_325751609_489305594_3 Bus1=node_418015340.3.4 Phases=1 Model=8 zipv=(0.5,0,0.5,1,0,0,0) kv=0.1270 pf=0.92 kW=0.919178 Daily=RES1_25
New Load.BT_325755195_326204587_1 Bus1=node_409128790.1.4 Phases=1 Model=8 zipv=(0.5,0,0.5,1,0,0,0) kv=0.1200 pf=0.92 kW=13.683562 Daily=RES1_25
New Load.BT_325755195_326204587_2 Bus1=node_409128790.2.4 Phases=1 Model=8 zipv=(0.5,0,0.5,1,0,0,0) kv=0.1200 pf=0.92 kW=13.683562 Daily=RES1_25
New Load.BT_325097987_326203044_1 Bus1=node_408207835.1.4 Phases=1 Model=8 zipv=(0.5,0,0.5,1,0,0,0) kv=0.1270 pf=0.92 kW=6.384018 Daily=RES1_25
New Load.BT_325097987_326203044_2 Bus1=node_408207835.2.4 Phases=1 Model=8 zipv=(0.5,0,0.5,1,0,0,0) kv=0.1270 pf=0.92 kW=6.384018 Daily=RES1_25
New Load.BT_325097987_326203044_3 Bus1=node_408207835.3.4 Phases=1 Model=8 zipv=(0.5,0,0.5,1,0,0,0) kv=0.1270 pf=0.92 kW=6.384018 Daily=RES1_25
New Load.BT_325252866_326169449_1 Bus1=node_409580430.1.4 Phases=1 Model=8 zipv=(0.5,0,0.5,1,0,0,0) kv=0.1270 pf=0.92 kW=5.678539 Daily=RES1_25
New Load.BT_325252866_326169449_2 Bus1=node_409580430.2.4 Phases=1 Model=8 zipv=(0.5,0,0.5,1,0,0,0) kv=0.1270 pf=0.92 kW=5.678539 Daily=RES1_25
New Load.BT_325252866_326169449_3 Bus1=node_409580430.3.4 Phases=1 Model=8 zipv=(0.5,0,0.5,1,0,0,0) kv=0.1270 pf=0.92 kW=5.678539 Daily=RES1_25
New Load.BT_325755607_2525584804_1 Bus1=node_408208285.1.4 Phases=1 Model=8 zipv=(0.5,0,0.5,1,0,0,0) kv=0.1270 pf=0.92 kW=5.608676 Daily=RES1_25
New Load.BT_325755607_2525584804_2 Bus1=node_408208285.2.4 Phases=1 Model=8 zipv=(0.5,0,0.5,1,0,0,0) kv=0.1270 pf=0.92 kW=5.608676 Daily=RES1_25
New Load.BT_325755607_2525584804_3 Bus1=node_408208285.3.4 Phases=1 Model=8 zipv=(0.5,0,0.5,1,0,0,0) kv=0.1270 pf=0.92 kW=5.608676 Daily=RES1_25
New Load.BT_324478691_326251274_1 Bus1=node_408208021.1.4 Phases=1 Model=8 zipv=(0.5,0,0.5,1,0,0,0) kv=0.1200 pf=0.92 kW=7.746575 Daily=RES1_25
New Load.BT_324478691_326251274_2 Bus1=node_408208021.2.4 Phases=1 Model=8 zipv=(0.5,0,0.5,1,0,0,0) kv=0.1200 pf=0.92 kW=7.746575 Daily=RES1_25
New Load.BT_325249482_326202535_1 Bus1=node_418012559.1.4 Phases=1 Model=8 zipv=(0.5,0,0.5,1,0,0,0) kv=0.1200 pf=0.92 kW=0.178767 Daily=RES1_25
New Load.BT_325249482_326202535_2 Bus1=node_418012559.2.4 Phases=1 Model=8 zipv=(0.5,0,0.5,1,0,0,0) kv=0.1200 pf=0.92 kW=0.178767 Daily=RES1_25
New Load.BT_325250057_326169657_1 Bus1=node_410020622.1.4 Phases=1 Model=8 zipv=(0.5,0,0.5,1,0,0,0) kv=0.1270 pf=0.92 kW=6.467580 Daily=RES1_25
New Load.BT_325250057_326169657_2 Bus1=node_410020622.2.4 Phases=1 Model=8 zipv=(0.5,0,0.5,1,0,0,0) kv=0.1270 pf=0.92 kW=6.467580 Daily=RES1_25
New Load.BT_325250057_326169657_3 Bus1=node_410020622.3.4 Phases=1 Model=8 zipv=(0.5,0,0.5,1,0,0,0) kv=0.1270 pf=0.92 kW=6.467580 Daily=RES1_25
New Load.BT_1788038850_1788038851_1 Bus1=node_460617060.1.4 Phases=1 Model=8 zipv=(0.5,0,0.5,1,0,0,0) kv=0.1270 pf=0.92 kW=1.038356 Daily=RES1_25
New Load.BT_1788038850_1788038851_2 Bus1=node_460617060.2.4 Phases=1 Model=8 zipv=(0.5,0,0.5,1,0,0,0) kv=0.1270 pf=0.92 kW=1.038356 Daily=RES1_25
New Load.BT_1788038850_1788038851_3 Bus1=node_460617060.3.4 Phases=1 Model=8 zipv=(0.5,0,0.5,1,0,0,0) kv=0.1270 pf=0.92 kW=1.038356 Daily=RES1_25
New Load.BT_325095127_326249712_1 Bus1=node_408207442.1.4 Phases=1 Model=8 zipv=(0.5,0,0.5,1,0,0,0) kv=0.1270 pf=0.92 kW=8.178539 Daily=RES1_25
New Load.BT_325095127_326249712_2 Bus1=node_408207442.2.4 Phases=1 Model=8 zipv=(0.5,0,0.5,1,0,0,0) kv=0.1270 pf=0.92 kW=8.178539 Daily=RES1_25
New Load.BT_325095127_326249712_3 Bus1=node_408207442.3.4 Phases=1 Model=8 zipv=(0.5,0,0.5,1,0,0,0) kv=0.1270 pf=0.92 kW=8.178539 Daily=RES1_25
New Load.BT_325755100_326205910_1 Bus1=node_410085067.1.4 Phases=1 Model=8 zipv=(0.5,0,0.5,1,0,0,0) kv=0.1270 pf=0.92 kW=1.631050 Daily=RES1_25
New Load.BT_325755100_326205910_2 Bus1=node_410085067.2.4 Phases=1 Model=8 zipv=(0.5,0,0.5,1,0,0,0) kv=0.1270 pf=0.92 kW=1.631050 Daily=RES1_25
New Load.BT_325755100_326205910_3 Bus1=node_410085067.3.4 Phases=1 Model=8 zipv=(0.5,0,0.5,1,0,0,0) kv=0.1270 pf=0.92 kW=1.631050 Daily=RES1_25
New Load.BT_325752166_326133669_1 Bus1=node_408207346.1.4 Phases=1 Model=8 zipv=(0.5,0,0.5,1,0,0,0) kv=0.1270 pf=0.92 kW=7.676256 Daily=RES1_25
New Load.BT_325752166_326133669_2 Bus1=node_408207346.2.4 Phases=1 Model=8 zipv=(0.5,0,0.5,1,0,0,0) kv=0.1270 pf=0.92 kW=7.676256 Daily=RES1_25
New Load.BT_325752166_326133669_3 Bus1=node_408207346.3.4 Phases=1 Model=8 zipv=(0.5,0,0.5,1,0,0,0) kv=0.1270 pf=0.92 kW=7.676256 Daily=RES1_25
New Load.BT_325249476_326169694_1 Bus1=node_410085274.1.4 Phases=1 Model=8 zipv=(0.5,0,0.5,1,0,0,0) kv=0.1270 pf=0.92 kW=0.691324 Daily=RES1_25
New Load.BT_325249476_326169694_2 Bus1=node_410085274.2.4 Phases=1 Model=8 zipv=(0.5,0,0.5,1,0,0,0) kv=0.1270 pf=0.92 kW=0.691324 Daily=RES1_25
New Load.BT_325249476_326169694_3 Bus1=node_410085274.3.4 Phases=1 Model=8 zipv=(0.5,0,0.5,1,0,0,0) kv=0.1270 pf=0.92 kW=0.691324 Daily=RES1_25
New Load.BT_325753573_326249710_1 Bus1=node_408207781.1.4 Phases=1 Model=8 zipv=(0.5,0,0.5,1,0,0,0) kv=0.1270 pf=0.92 kW=6.036530 Daily=RES1_25
New Load.BT_325753573_326249710_2 Bus1=node_408207781.2.4 Phases=1 Model=8 zipv=(0.5,0,0.5,1,0,0,0) kv=0.1270 pf=0.92 kW=6.036530 Daily=RES1_25
New Load.BT_325753573_326249710_3 Bus1=node_408207781.3.4 Phases=1 Model=8 zipv=(0.5,0,0.5,1,0,0,0) kv=0.1270 pf=0.92 kW=6.036530 Daily=RES1_25
New Load.BT_325096609_326133673_1 Bus1=node_408207439.1.4 Phases=1 Model=8 zipv=(0.5,0,0.5,1,0,0,0) kv=0.1270 pf=0.92 kW=7.795890 Daily=RES1_25
New Load.BT_325096609_326133673_2 Bus1=node_408207439.2.4 Phases=1 Model=8 zipv=(0.5,0,0.5,1,0,0,0) kv=0.1270 pf=0.92 kW=7.795890 Daily=RES1_25
New Load.BT_325096609_326133673_3 Bus1=node_408207439.3.4 Phases=1 Model=8 zipv=(0.5,0,0.5,1,0,0,0) kv=0.1270 pf=0.92 kW=7.795890 Daily=RES1_25
New Load.BT_325251589_326135478_1 Bus1=node_410084938.1.4 Phases=1 Model=8 zipv=(0.5,0,0.5,1,0,0,0) kv=0.1270 pf=0.92 kW=1.482192 Daily=RES1_25
New Load.BT_325251589_326135478_2 Bus1=node_410084938.2.4 Phases=1 Model=8 zipv=(0.5,0,0.5,1,0,0,0) kv=0.1270 pf=0.92 kW=1.482192 Daily=RES1_25
New Load.BT_325251589_326135478_3 Bus1=node_410084938.3.4 Phases=1 Model=8 zipv=(0.5,0,0.5,1,0,0,0) kv=0.1270 pf=0.92 kW=1.482192 Daily=RES1_25
New Load.BT_325250386_326249721_1 Bus1=node_408208180.1.4 Phases=1 Model=8 zipv=(0.5,0,0.5,1,0,0,0) kv=0.1270 pf=0.92 kW=7.296804 Daily=RES1_25
New Load.BT_325250386_326249721_2 Bus1=node_408208180.2.4 Phases=1 Model=8 zipv=(0.5,0,0.5,1,0,0,0) kv=0.1270 pf=0.92 kW=7.296804 Daily=RES1_25
New Load.BT_325250386_326249721_3 Bus1=node_408208180.3.4 Phases=1 Model=8 zipv=(0.5,0,0.5,1,0,0,0) kv=0.1270 pf=0.92 kW=7.296804 Daily=RES1_25
New Load.BT_325098556_326253049_1 Bus1=node_410084977.1.4 Phases=1 Model=8 zipv=(0.5,0,0.5,1,0,0,0) kv=0.1270 pf=0.92 kW=1.277626 Daily=RES1_25
New Load.BT_325098556_326253049_2 Bus1=node_410084977.2.4 Phases=1 Model=8 zipv=(0.5,0,0.5,1,0,0,0) kv=0.1270 pf=0.92 kW=1.277626 Daily=RES1_25
New Load.BT_325098556_326253049_3 Bus1=node_410084977.3.4 Phases=1 Model=8 zipv=(0.5,0,0.5,1,0,0,0) kv=0.1270 pf=0.92 kW=1.277626 Daily=RES1_25
New Load.BT_325095198_326205809_1 Bus1=node_409956756.1.4 Phases=1 Model=8 zipv=(0.5,0,0.5,1,0,0,0) kv=0.1270 pf=0.92 kW=3.044749 Daily=RES1_25
New Load.BT_325095198_326205809_2 Bus1=node_409956756.2.4 Phases=1 Model=8 zipv=(0.5,0,0.5,1,0,0,0) kv=0.1270 pf=0.92 kW=3.044749 Daily=RES1_25
New Load.BT_325095198_326205809_3 Bus1=node_409956756.3.4 Phases=1 Model=8 zipv=(0.5,0,0.5,1,0,0,0) kv=0.1270 pf=0.92 kW=3.044749 Daily=RES1_25
New Load.BT_2222724879_2222724878_1 Bus1=node_2528371791.1.4 Phases=1 Model=8 zipv=(0.5,0,0.5,1,0,0,0) kv=0.1270 pf=0.92 kW=1.501826 Daily=RES1_25
New Load.BT_2222724879_2222724878_2 Bus1=node_2528371791.2.4 Phases=1 Model=8 zipv=(0.5,0,0.5,1,0,0,0) kv=0.1270 pf=0.92 kW=1.501826 Daily=RES1_25
New Load.BT_2222724879_2222724878_3 Bus1=node_2528371791.3.4 Phases=1 Model=8 zipv=(0.5,0,0.5,1,0,0,0) kv=0.1270 pf=0.92 kW=1.501826 Daily=RES1_25
New Load.BT_325517668_325934907_1 Bus1=node_409043580.1.4 Phases=1 Model=8 zipv=(0.5,0,0.5,1,0,0,0) kv=0.1270 pf=0.92 kW=10.623744 Daily=RES1_25
New Load.BT_325517668_325934907_2 Bus1=node_409043580.2.4 Phases=1 Model=8 zipv=(0.5,0,0.5,1,0,0,0) kv=0.1270 pf=0.92 kW=10.623744 Daily=RES1_25
New Load.BT_325517668_325934907_3 Bus1=node_409043580.3.4 Phases=1 Model=8 zipv=(0.5,0,0.5,1,0,0,0) kv=0.1270 pf=0.92 kW=10.623744 Daily=RES1_25
New Load.BT_953112495_953112496_1 Bus1=node_1215423683.1.4 Phases=1 Model=8 zipv=(0.5,0,0.5,1,0,0,0) kv=0.1270 pf=0.92 kW=2.164840 Daily=RES1_25
New Load.BT_953112495_953112496_2 Bus1=node_1215423683.2.4 Phases=1 Model=8 zipv=(0.5,0,0.5,1,0,0,0) kv=0.1270 pf=0.92 kW=2.164840 Daily=RES1_25
New Load.BT_953112495_953112496_3 Bus1=node_1215423683.3.4 Phases=1 Model=8 zipv=(0.5,0,0.5,1,0,0,0) kv=0.1270 pf=0.92 kW=2.164840 Daily=RES1_25
New Load.BT_1006436420_1331655280_1 Bus1=node_1269431240.1.4 Phases=1 Model=8 zipv=(0.5,0,0.5,1,0,0,0) kv=0.1270 pf=0.92 kW=1.080822 Daily=RES1_25
New Load.BT_1006436420_1331655280_2 Bus1=node_1269431240.2.4 Phases=1 Model=8 zipv=(0.5,0,0.5,1,0,0,0) kv=0.1270 pf=0.92 kW=1.080822 Daily=RES1_25
New Load.BT_1006436420_1331655280_3 Bus1=node_1269431240.3.4 Phases=1 Model=8 zipv=(0.5,0,0.5,1,0,0,0) kv=0.1270 pf=0.92 kW=1.080822 Daily=RES1_25
New Load.BT_324479674_326136348_1 Bus1=node_408207862.1.4 Phases=1 Model=8 zipv=(0.5,0,0.5,1,0,0,0) kv=0.1270 pf=0.92 kW=5.711872 Daily=RES1_25
New Load.BT_324479674_326136348_2 Bus1=node_408207862.2.4 Phases=1 Model=8 zipv=(0.5,0,0.5,1,0,0,0) kv=0.1270 pf=0.92 kW=5.711872 Daily=RES1_25
New Load.BT_324479674_326136348_3 Bus1=node_408207862.3.4 Phases=1 Model=8 zipv=(0.5,0,0.5,1,0,0,0) kv=0.1270 pf=0.92 kW=5.711872 Daily=RES1_25
New Load.BT_953112403_2275218840_1 Bus1=node_1266584270.1.4 Phases=1 Model=8 zipv=(0.5,0,0.5,1,0,0,0) kv=0.1270 pf=0.92 kW=1.547945 Daily=RES1_25
New Load.BT_953112403_2275218840_2 Bus1=node_1266584270.2.4 Phases=1 Model=8 zipv=(0.5,0,0.5,1,0,0,0) kv=0.1270 pf=0.92 kW=1.547945 Daily=RES1_25
New Load.BT_953112403_2275218840_3 Bus1=node_1266584270.3.4 Phases=1 Model=8 zipv=(0.5,0,0.5,1,0,0,0) kv=0.1270 pf=0.92 kW=1.547945 Daily=RES1_25
New Load.BT_325515853_326137728_1 Bus1=node_408207778.1.4 Phases=1 Model=8 zipv=(0.5,0,0.5,1,0,0,0) kv=0.1270 pf=0.92 kW=8.252055 Daily=RES1_25
New Load.BT_325515853_326137728_2 Bus1=node_408207778.2.4 Phases=1 Model=8 zipv=(0.5,0,0.5,1,0,0,0) kv=0.1270 pf=0.92 kW=8.252055 Daily=RES1_25
New Load.BT_325515853_326137728_3 Bus1=node_408207778.3.4 Phases=1 Model=8 zipv=(0.5,0,0.5,1,0,0,0) kv=0.1270 pf=0.92 kW=8.252055 Daily=RES1_25
New Load.BT_1589054873_1589054872_1 Bus1=node_1909498970.1.4 Phases=1 Model=8 zipv=(0.5,0,0.5,1,0,0,0) kv=0.1200 pf=0.92 kW=4.815068 Daily=RES1_25
New Load.BT_1589054873_1589054872_2 Bus1=node_1909498970.2.4 Phases=1 Model=8 zipv=(0.5,0,0.5,1,0,0,0) kv=0.1200 pf=0.92 kW=4.815068 Daily=RES1_25
New Load.BT_325250419_326169693_1 Bus1=node_410085415.1.4 Phases=1 Model=8 zipv=(0.5,0,0.5,1,0,0,0) kv=0.1270 pf=0.92 kW=1.099543 Daily=RES1_25
New Load.BT_325250419_326169693_2 Bus1=node_410085415.2.4 Phases=1 Model=8 zipv=(0.5,0,0.5,1,0,0,0) kv=0.1270 pf=0.92 kW=1.099543 Daily=RES1_25
New Load.BT_325250419_326169693_3 Bus1=node_410085415.3.4 Phases=1 Model=8 zipv=(0.5,0,0.5,1,0,0,0) kv=0.1270 pf=0.92 kW=1.099543 Daily=RES1_25
New Load.BT_325095148_326203040_1 Bus1=node_408208276.1.4 Phases=1 Model=8 zipv=(0.5,0,0.5,1,0,0,0) kv=0.1270 pf=0.92 kW=11.441096 Daily=RES1_25
New Load.BT_325095148_326203040_2 Bus1=node_408208276.2.4 Phases=1 Model=8 zipv=(0.5,0,0.5,1,0,0,0) kv=0.1270 pf=0.92 kW=11.441096 Daily=RES1_25
New Load.BT_325095148_326203040_3 Bus1=node_408208276.3.4 Phases=1 Model=8 zipv=(0.5,0,0.5,1,0,0,0) kv=0.1270 pf=0.92 kW=11.441096 Daily=RES1_25
New Load.BT_325098135_326253011_1 Bus1=node_408208048.1.4 Phases=1 Model=8 zipv=(0.5,0,0.5,1,0,0,0) kv=0.1270 pf=0.92 kW=2.883105 Daily=RES1_25
New Load.BT_325098135_326253011_2 Bus1=node_408208048.2.4 Phases=1 Model=8 zipv=(0.5,0,0.5,1,0,0,0) kv=0.1270 pf=0.92 kW=2.883105 Daily=RES1_25
New Load.BT_325098135_326253011_3 Bus1=node_408208048.3.4 Phases=1 Model=8 zipv=(0.5,0,0.5,1,0,0,0) kv=0.1270 pf=0.92 kW=2.883105 Daily=RES1_25
New Load.BT_325252117_326137757_1 Bus1=node_408209053.1.4 Phases=1 Model=8 zipv=(0.5,0,0.5,1,0,0,0) kv=0.1270 pf=0.92 kW=8.579909 Daily=RES1_25
New Load.BT_325252117_326137757_2 Bus1=node_408209053.2.4 Phases=1 Model=8 zipv=(0.5,0,0.5,1,0,0,0) kv=0.1270 pf=0.92 kW=8.579909 Daily=RES1_25
New Load.BT_325252117_326137757_3 Bus1=node_408209053.3.4 Phases=1 Model=8 zipv=(0.5,0,0.5,1,0,0,0) kv=0.1270 pf=0.92 kW=8.579909 Daily=RES1_25
New Load.BT_325096277_326136084_1 Bus1=node_408269490.1.4 Phases=1 Model=8 zipv=(0.5,0,0.5,1,0,0,0) kv=0.1200 pf=0.92 kW=0.025342 Daily=RES1_25
New Load.BT_325096277_326136084_2 Bus1=node_408269490.2.4 Phases=1 Model=8 zipv=(0.5,0,0.5,1,0,0,0) kv=0.1200 pf=0.92 kW=0.025342 Daily=RES1_25
New Load.BT_324477506_325933402_1 Bus1=node_408207454.1.4 Phases=1 Model=8 zipv=(0.5,0,0.5,1,0,0,0) kv=0.1270 pf=0.92 kW=5.943836 Daily=RES1_25
New Load.BT_324477506_325933402_2 Bus1=node_408207454.2.4 Phases=1 Model=8 zipv=(0.5,0,0.5,1,0,0,0) kv=0.1270 pf=0.92 kW=5.943836 Daily=RES1_25
New Load.BT_324477506_325933402_3 Bus1=node_408207454.3.4 Phases=1 Model=8 zipv=(0.5,0,0.5,1,0,0,0) kv=0.1270 pf=0.92 kW=5.943836 Daily=RES1_25
New Load.BT_325755178_326137724_1 Bus1=node_408207343.1.4 Phases=1 Model=8 zipv=(0.5,0,0.5,1,0,0,0) kv=0.1270 pf=0.92 kW=2.074886 Daily=RES1_25
New Load.BT_325755178_326137724_2 Bus1=node_408207343.2.4 Phases=1 Model=8 zipv=(0.5,0,0.5,1,0,0,0) kv=0.1270 pf=0.92 kW=2.074886 Daily=RES1_25
New Load.BT_325755178_326137724_3 Bus1=node_408207343.3.4 Phases=1 Model=8 zipv=(0.5,0,0.5,1,0,0,0) kv=0.1270 pf=0.92 kW=2.074886 Daily=RES1_25
New Load.BT_325249803_1419398877_1 Bus1=node_418015331.1.4 Phases=1 Model=8 zipv=(0.5,0,0.5,1,0,0,0) kv=0.1200 pf=0.92 kW=1.507534 Daily=RES1_25
New Load.BT_325249803_1419398877_2 Bus1=node_418015331.2.4 Phases=1 Model=8 zipv=(0.5,0,0.5,1,0,0,0) kv=0.1200 pf=0.92 kW=1.507534 Daily=RES1_25
New Load.BT_325753624_325933030_1 Bus1=node_418487163.1.4 Phases=1 Model=8 zipv=(0.5,0,0.5,1,0,0,0) kv=0.1200 pf=0.92 kW=1.033562 Daily=RES1_25
New Load.BT_325753624_325933030_2 Bus1=node_418487163.2.4 Phases=1 Model=8 zipv=(0.5,0,0.5,1,0,0,0) kv=0.1200 pf=0.92 kW=1.033562 Daily=RES1_25
New Load.BT_324480287_326250592_1 Bus1=node_418486653.1.4 Phases=1 Model=8 zipv=(0.5,0,0.5,1,0,0,0) kv=0.1200 pf=0.92 kW=0.812329 Daily=RES1_25
New Load.BT_324480287_326250592_2 Bus1=node_418486653.2.4 Phases=1 Model=8 zipv=(0.5,0,0.5,1,0,0,0) kv=0.1200 pf=0.92 kW=0.812329 Daily=RES1_25
New Load.BT_325251808_694553855_1 Bus1=node_410139751.1.4 Phases=1 Model=8 zipv=(0.5,0,0.5,1,0,0,0) kv=0.1270 pf=0.92 kW=0.018721 Daily=RES1_25
New Load.BT_325251808_694553855_2 Bus1=node_410139751.2.4 Phases=1 Model=8 zipv=(0.5,0,0.5,1,0,0,0) kv=0.1270 pf=0.92 kW=0.018721 Daily=RES1_25
New Load.BT_325251808_694553855_3 Bus1=node_410139751.3.4 Phases=1 Model=8 zipv=(0.5,0,0.5,1,0,0,0) kv=0.1270 pf=0.92 kW=0.018721 Daily=RES1_25
New Load.BT_953112729_953112730_1 Bus1=node_1215424584.1.4 Phases=1 Model=8 zipv=(0.5,0,0.5,1,0,0,0) kv=0.1270 pf=0.92 kW=0.274429 Daily=RES1_25
New Load.BT_953112729_953112730_2 Bus1=node_1215424584.2.4 Phases=1 Model=8 zipv=(0.5,0,0.5,1,0,0,0) kv=0.1270 pf=0.92 kW=0.274429 Daily=RES1_25
New Load.BT_953112729_953112730_3 Bus1=node_1215424584.3.4 Phases=1 Model=8 zipv=(0.5,0,0.5,1,0,0,0) kv=0.1270 pf=0.92 kW=0.274429 Daily=RES1_25
New Load.BT_325094820_694553859_1 Bus1=node_459336000.1.4 Phases=1 Model=8 zipv=(0.5,0,0.5,1,0,0,0) kv=0.1270 pf=0.92 kW=0.003653 Daily=RES1_25
New Load.BT_325094820_694553859_2 Bus1=node_459336000.2.4 Phases=1 Model=8 zipv=(0.5,0,0.5,1,0,0,0) kv=0.1270 pf=0.92 kW=0.003653 Daily=RES1_25
New Load.BT_325094820_694553859_3 Bus1=node_459336000.3.4 Phases=1 Model=8 zipv=(0.5,0,0.5,1,0,0,0) kv=0.1270 pf=0.92 kW=0.003653 Daily=RES1_25
New Load.BT_325516508_326136342_1 Bus1=node_408207205.1.4 Phases=1 Model=8 zipv=(0.5,0,0.5,1,0,0,0) kv=0.1200 pf=0.92 kW=2.945890 Daily=RES1_25
...

! --- cargas de media tensao (UCMT_tab) ---
New Load.MT_node_440293072_1 Bus1=node_440293072.1.2.3 Phases=3 Conn=wye Model=8 zipv=(0.5,0,0.5,1,0,0,0) kv=13.8000 pf=0.92 kW=370.8425 Daily=MT1_1
New Load.MT_node_435856002_2 Bus1=node_435856002.1.2.3 Phases=3 Conn=wye Model=8 zipv=(0.5,0,0.5,1,0,0,0) kv=13.8000 pf=0.92 kW=192.5795 Daily=MT4_1
New Load.MT_node_116319988_3 Bus1=node_116319988.1.2.3 Phases=3 Conn=wye Model=8 zipv=(0.5,0,0.5,1,0,0,0) kv=13.8000 pf=0.92 kW=119.2932 Daily=MT1_1
New Load.MT_node_2517748379_4 Bus1=node_2517748379.1.2.3 Phases=3 Conn=wye Model=8 zipv=(0.5,0,0.5,1,0,0,0) kv=13.8000 pf=0.92 kW=4.5068 Daily=MT5_1
New Load.MT_node_112409739_6 Bus1=node_112409739.1.2.3 Phases=3 Conn=wye Model=8 zipv=(0.5,0,0.5,1,0,0,0) kv=13.8000 pf=0.92 kW=35.4397 Daily=MT1_1
New Load.MT_node_113872698_7 Bus1=node_113872698.1.2.3 Phases=3 Conn=wye Model=8 zipv=(0.5,0,0.5,1,0,0,0) kv=13.8000 pf=0.92 kW=10.5479 Daily=MT1_1
New Load.MT_node_1411347927_9 Bus1=node_1411347927.1.2.3 Phases=3 Conn=wye Model=8 zipv=(0.5,0,0.5,1,0,0,0) kv=13.8000 pf=0.92 kW=31.3562 Daily=MT1_1
New Load.MT_node_441678868_10 Bus1=node_441678868.1.2.3 Phases=3 Conn=wye Model=8 zipv=(0.5,0,0.5,1,0,0,0) kv=13.8000 pf=0.92 kW=5.8973 Daily=MT1_1
New Load.MT_node_108271342_11 Bus1=node_108271342.1.2.3 Phases=3 Conn=wye Model=8 zipv=(0.5,0,0.5,1,0,0,0) kv=13.8000 pf=0.92 kW=83.4247 Daily=MT1_1
New Load.MT_node_112244998_12 Bus1=node_112244998.1.2.3 Phases=3 Conn=wye Model=8 zipv=(0.5,0,0.5,1,0,0,0) kv=13.8000 pf=0.92 kW=4.2685 Daily=MT1_1
New Load.MT_node_172496728_14 Bus1=node_172496728.1.2.3 Phases=3 Conn=wye Model=8 zipv=(0.5,0,0.5,1,0,0,0) kv=13.8000 pf=0.92 kW=37.3973 Daily=MT1_1
